Version 4
SHEET 1 980 680
WIRE 608 -288 608 -304
WIRE 608 -288 528 -288
WIRE 704 -288 608 -288
WIRE 608 -240 592 -240
WIRE 640 -240 608 -240
WIRE 528 -176 528 -192
WIRE 608 -176 608 -240
WIRE 608 -176 528 -176
WIRE 704 -176 704 -192
WIRE 752 -176 704 -176
WIRE 864 -176 816 -176
WIRE 960 -176 944 -176
WIRE 528 -144 528 -176
WIRE 704 -144 704 -176
WIRE 464 -96 448 -96
WIRE -16 -32 -16 -48
WIRE 528 -32 528 -48
WIRE 704 -32 704 -48
WIRE 48 48 -16 48
WIRE 608 48 528 48
WIRE 704 48 608 48
WIRE -16 64 -16 48
WIRE 128 64 128 -48
WIRE 608 64 608 48
WIRE 48 112 48 48
WIRE 64 112 48 112
WIRE 48 160 -16 160
WIRE 128 160 48 160
WIRE 48 176 48 160
FLAG -16 -48 VCC
FLAG 48 176 VEE
FLAG 128 -48 IEE
FLAG 368 -96 0
FLAG 768 -96 0
FLAG 608 -304 VCC
FLAG 960 -176 0
FLAG -16 -368 VCC
FLAG 96 -288 VEE
FLAG 96 -368 0
FLAG -16 -288 0
FLAG 608 64 IEE
SYMBOL res -32 -48 R0
SYMATTR InstName RI
SYMATTR Value 38.6k
SYMBOL npn 48 64 M0
SYMATTR InstName Q1
SYMBOL npn 64 64 R0
SYMATTR InstName Q2
SYMBOL npn 464 -144 R0
SYMATTR InstName Q3
SYMBOL npn 768 -144 M0
SYMATTR InstName Q4
SYMBOL pnp 592 -192 R180
SYMATTR InstName Q5
SYMBOL pnp 640 -192 M180
SYMATTR InstName Q6
SYMBOL res 512 -48 R0
SYMATTR InstName R2
SYMBOL res 688 -48 R0
SYMATTR InstName R3
SYMBOL voltage 464 -96 R90
WINDOW 0 -32 56 VBottom 2
WINDOW 3 32 56 VTop 2
WINDOW 123 0 0 Left 0
WINDOW 39 0 0 Left 0
SYMATTR InstName V1
SYMATTR Value SINE(0 10m 10k)
SYMBOL cap 816 -192 R90
WINDOW 0 0 32 VBottom 2
WINDOW 3 32 32 VTop 2
SYMATTR InstName C1
SYMATTR Value 318µ
SYMBOL res 960 -192 R90
WINDOW 0 0 56 VBottom 2
WINDOW 3 32 56 VTop 2
SYMATTR InstName RL
SYMATTR Value 100k
SYMBOL voltage -16 -384 R0
WINDOW 123 0 0 Left 0
WINDOW 39 0 0 Left 0
SYMATTR InstName V2
SYMATTR Value 20
SYMBOL voltage 96 -384 R0
WINDOW 123 0 0 Left 0
WINDOW 39 0 0 Left 0
SYMATTR InstName V3
SYMATTR Value 20
TEXT -40 -432 Left 2 ;Fontes Simétricas
TEXT -56 -112 Left 2 ;Espelho de Corrente
TEXT 520 -376 Left 2 ;Primeiro Estágio
