Version 4
SHEET 1 2068 680
WIRE -16 -272 -16 -288
WIRE -16 -272 -32 -272
WIRE -16 -256 -16 -272
WIRE 784 -192 784 -208
WIRE 784 -192 672 -192
WIRE 896 -192 784 -192
WIRE 784 -144 736 -144
WIRE 832 -144 784 -144
WIRE 672 -80 672 -96
WIRE 784 -80 784 -144
WIRE 784 -80 672 -80
WIRE 896 -80 896 -96
WIRE 992 -80 896 -80
WIRE 672 -48 672 -80
WIRE 896 -48 896 -80
WIRE 608 0 592 0
WIRE 784 48 672 48
WIRE 896 48 784 48
WIRE 0 64 0 48
WIRE 784 64 784 48
WIRE 64 144 0 144
WIRE 0 160 0 144
WIRE 144 160 144 48
WIRE 64 208 64 144
WIRE 80 208 64 208
WIRE 64 256 0 256
WIRE 144 256 64 256
WIRE 64 272 64 256
FLAG 0 48 VCC
FLAG 64 272 VEE
FLAG 144 48 IEE
FLAG 512 0 0
FLAG 960 0 0
FLAG 784 -208 VCC
FLAG -16 -368 VCC
FLAG -16 -176 VEE
FLAG -32 -272 0
FLAG 784 64 IEE
FLAG 1056 -80 1a2
SYMBOL res -16 48 R0
SYMATTR InstName RI
SYMATTR Value 20149
SYMBOL npn 64 160 M0
SYMATTR InstName Q5
SYMATTR Value 2N2222
SYMBOL npn 80 160 R0
SYMATTR InstName Q6
SYMATTR Value 2N2222
SYMBOL npn 608 -48 R0
SYMATTR InstName Q1
SYMATTR Value 2SD2657
SYMBOL npn 960 -48 M0
SYMATTR InstName Q2
SYMATTR Value 2SD2657
SYMBOL pnp 736 -96 R180
SYMATTR InstName Q3
SYMATTR Value BC858B
SYMBOL pnp 832 -96 M180
SYMATTR InstName Q4
SYMATTR Value BC858B
SYMBOL voltage 608 0 R90
WINDOW 0 -32 56 VBottom 2
WINDOW 3 32 56 VTop 2
WINDOW 123 0 0 Left 0
WINDOW 39 0 0 Left 0
SYMATTR InstName Va
SYMATTR Value SINE(0 100u 10k)
SYMBOL voltage -16 -384 R0
WINDOW 123 0 0 Left 0
WINDOW 39 0 0 Left 0
SYMATTR InstName V2
SYMATTR Value 20
SYMBOL voltage -16 -272 R0
WINDOW 123 0 0 Left 0
WINDOW 39 0 0 Left 0
SYMATTR InstName V3
SYMATTR Value 20
SYMBOL cap 1056 -96 R90
WINDOW 0 0 32 VBottom 2
WINDOW 3 32 32 VTop 2
SYMATTR InstName C1
SYMATTR Value 62.471n
TEXT -40 -432 Left 2 ;Fontes Simétricas
TEXT -40 -16 Left 2 ;Espelho de Corrente
TEXT 616 -288 Left 2 ;Primeiro Estágio (Carga Ativa)
TEXT 416 272 Left 2 ;.op
TEXT 1872 -296 Left 2 ;Segundo Estágio
TEXT 432 208 Left 2 !.tran 1m
